Version 4
SHEET 1 1272 1080
WIRE -672 -16 -688 -16
WIRE -512 -16 -672 -16
WIRE -352 -16 -448 -16
WIRE -304 -16 -352 -16
WIRE -288 -16 -304 -16
WIRE -352 16 -352 -16
WIRE -688 32 -688 -16
WIRE 464 32 336 32
WIRE -352 96 -400 96
WIRE -400 112 -400 96
WIRE 336 112 336 32
WIRE 336 112 320 112
WIRE 384 144 320 144
WIRE 432 144 384 144
WIRE 384 176 320 176
WIRE 432 176 432 144
WIRE 464 176 432 176
WIRE -688 192 -688 112
WIRE -512 192 -688 192
WIRE -352 192 -352 176
WIRE -352 192 -448 192
WIRE -288 192 -352 192
WIRE 336 208 320 208
WIRE 336 240 336 208
WIRE 384 240 336 240
WIRE -448 528 -448 512
WIRE -448 528 -544 528
WIRE -736 544 -736 464
WIRE -736 544 -816 544
WIRE -448 544 -448 528
WIRE -544 560 -544 528
WIRE -816 592 -816 544
WIRE -736 592 -736 544
WIRE -544 656 -544 624
WIRE -448 656 -448 624
WIRE -448 656 -544 656
WIRE -816 688 -816 656
WIRE -768 688 -816 688
WIRE -736 688 -736 672
WIRE -736 688 -768 688
WIRE -768 704 -768 688
WIRE -448 704 -448 656
FLAG -736 464 +9V
IOPIN -736 464 BiDir
FLAG -448 704 -9V
IOPIN -448 704 BiDir
FLAG 192 176 +9V
IOPIN 192 176 BiDir
FLAG 192 208 -9V
IOPIN 192 208 BiDir
FLAG -288 -16 Sig+
IOPIN -288 -16 BiDir
FLAG 192 112 Sig+
IOPIN 192 112 BiDir
FLAG -288 192 Sig-
IOPIN -288 192 BiDir
FLAG 192 144 Sig-
IOPIN 192 144 BiDir
FLAG 464 32 VOut
IOPIN 464 32 Out
FLAG -400 112 0
FLAG 384 144 REF
FLAG -672 -16 Vin
FLAG -304 -16 SigIn
FLAG -768 704 0
FLAG -448 512 0
SYMBOL cap 368 176 R0
SYMATTR InstName C1
SYMATTR Value .47µ
SYMBOL voltage -736 576 R0
WINDOW 123 24 124 Left 2
WINDOW 39 0 0 Left 0
SYMATTR Value2 AC 0
SYMATTR InstName V1
SYMATTR Value 9
SYMBOL voltage -448 528 R0
WINDOW 123 24 124 Left 2
WINDOW 39 0 0 Left 0
SYMATTR Value2 AC 0
SYMATTR InstName V2
SYMATTR Value 9
SYMBOL voltage -688 16 R0
WINDOW 39 24 152 Left 2
SYMATTR SpiceLine Rser=1100
SYMATTR Value2 AC 0 0
SYMATTR InstName V3
SYMATTR Value SINE(0 10n 50)
SYMBOL res -336 112 R180
WINDOW 0 36 76 Left 2
WINDOW 3 36 40 Left 2
SYMATTR InstName R1
SYMATTR Value 100k
SYMATTR SpiceLine tol=1
SYMBOL res -368 192 M180
WINDOW 0 36 76 Left 2
WINDOW 3 36 40 Left 2
SYMATTR InstName R2
SYMATTR Value 100k
SYMATTR SpiceLine tol=1
SYMBOL RefAmp197 512 176 R180
WINDOW 0 0 -24 Bottom 2
SYMATTR InstName X1
SYMBOL cap -448 -32 R90
WINDOW 0 0 32 VBottom 2
WINDOW 3 32 32 VTop 2
SYMATTR InstName C5
SYMATTR Value 15µ
SYMBOL cap -448 176 R90
WINDOW 0 0 32 VBottom 2
WINDOW 3 32 32 VTop 2
SYMATTR InstName C6
SYMATTR Value 15µ
SYMBOL INA848 256 160 R0
SYMATTR InstName U1
SYMBOL cap -560 560 R0
SYMATTR InstName C2
SYMATTR Value .1µ
SYMBOL cap -832 592 R0
SYMATTR InstName C3
SYMATTR Value .1µ
TEXT -208 600 Left 2 !.tran 0 200m 100m 1u
TEXT -208 632 Left 2 ;.noise V(VOut) V3 dec 10 .1 1000
TEXT -128 88 Left 2 ;.ac dec 10 .1 10k
