Version 4
SHEET 1 1272 1080
WIRE -672 -16 -688 -16
WIRE -352 -16 -672 -16
WIRE -304 -16 -352 -16
WIRE -288 -16 -304 -16
WIRE -352 16 -352 -16
WIRE -688 32 -688 -16
WIRE -352 96 -400 96
WIRE -400 112 -400 96
WIRE 336 112 336 32
WIRE 336 112 320 112
WIRE 384 144 320 144
WIRE 432 144 384 144
WIRE 368 176 320 176
WIRE 432 176 432 144
WIRE 464 176 432 176
WIRE -688 192 -688 112
WIRE -352 192 -352 176
WIRE -352 192 -688 192
WIRE -288 192 -352 192
WIRE 336 208 320 208
WIRE 336 256 336 208
WIRE 368 256 336 256
WIRE -448 528 -448 512
WIRE -448 528 -544 528
WIRE -768 544 -816 544
WIRE -736 544 -768 544
WIRE -448 544 -448 528
WIRE -544 560 -544 528
WIRE -736 592 -736 544
WIRE -816 608 -816 544
WIRE -544 640 -544 624
WIRE -448 640 -448 624
WIRE -448 640 -544 640
WIRE -816 688 -816 672
WIRE -768 688 -816 688
WIRE -736 688 -736 672
WIRE -736 688 -768 688
WIRE -768 704 -768 688
WIRE -448 704 -448 640
FLAG -768 544 +9V
IOPIN -768 544 BiDir
FLAG -448 704 -9V
IOPIN -448 704 BiDir
FLAG 192 176 +9V
IOPIN 192 176 BiDir
FLAG 192 208 -9V
IOPIN 192 208 BiDir
FLAG -288 -16 Sig+
IOPIN -288 -16 BiDir
FLAG 192 112 Sig+
IOPIN 192 112 BiDir
FLAG -288 192 Sig-
IOPIN -288 192 BiDir
FLAG 192 144 Sig-
IOPIN 192 144 BiDir
FLAG 336 32 VOut
IOPIN 336 32 Out
FLAG -400 112 0
FLAG 384 144 REF
FLAG -672 -16 Vin
FLAG -304 -16 SigIn
FLAG -768 704 0
FLAG -448 512 0
SYMBOL voltage -736 576 R0
WINDOW 123 24 124 Left 2
WINDOW 39 0 0 Left 0
SYMATTR Value2 AC 0
SYMATTR InstName V1
SYMATTR Value 9
SYMBOL voltage -448 528 R0
WINDOW 123 24 124 Left 2
WINDOW 39 0 0 Left 0
SYMATTR Value2 AC 0
SYMATTR InstName V2
SYMATTR Value 9
SYMBOL voltage -688 16 R0
WINDOW 39 24 152 Left 2
SYMATTR SpiceLine Rser=1100
SYMATTR Value2 AC 0 0
SYMATTR InstName V3
SYMATTR Value SINE(0 10n 50)
SYMBOL res -336 112 R180
WINDOW 0 36 76 Left 2
WINDOW 3 36 40 Left 2
SYMATTR InstName R1
SYMATTR Value 1Meg
SYMATTR SpiceLine tol=1
SYMBOL res -368 192 M180
WINDOW 0 36 76 Left 2
WINDOW 3 36 40 Left 2
SYMATTR InstName R2
SYMATTR Value 1Meg
SYMATTR SpiceLine tol=1
SYMBOL RefAmp197 512 176 R180
WINDOW 0 0 -24 Bottom 2
SYMATTR InstName X1
SYMBOL res 352 160 R0
SYMATTR InstName R6
SYMATTR Value 3
SYMBOL INA849 256 160 R0
SYMATTR InstName U1
TEXT -208 600 Left 2 !.tran 0 200m 100m 1u
TEXT -208 632 Left 2 ;.noise V(VOut) V3 dec 10 .1 1000
TEXT 280 496 Left 2 !.meas TRAN VppAmp PP V(Vout) FROM 100m TO 150m
TEXT -128 88 Left 2 ;.ac dec 10 .1 10k
