Version 4
SHEET 1 880 680
WIRE 336 64 336 32
WIRE 336 64 272 64
WIRE 400 64 336 64
WIRE 272 112 272 64
WIRE 400 128 400 64
WIRE 224 192 144 192
WIRE 192 224 144 224
WIRE 272 272 272 208
WIRE 336 272 272 272
WIRE 400 272 400 208
WIRE 400 272 336 272
WIRE 336 288 336 272
FLAG 192 224 VCC
FLAG 336 32 VCC
FLAG 336 288 0
SYMBOL nmos 224 112 R0
SYMATTR InstName M1
SYMBOL ind 384 112 R0
SYMATTR InstName L1
SYMATTR Value .01
SYMBOL 555Timer 96 208 R0
SYMATTR InstName X1
TEXT 112 352 Left 2 !.tran 0 1000n 0 1n
