Version 4
SHEET 1 1428 680
WIRE 1008 0 912 0
WIRE 1120 0 1008 0
WIRE 1200 0 1120 0
WIRE 912 32 912 0
WIRE 1008 32 1008 0
WIRE 1200 32 1200 0
WIRE 1120 80 1120 0
WIRE 544 112 400 112
WIRE 912 112 912 96
WIRE 912 112 544 112
WIRE 144 128 80 128
WIRE 256 128 208 128
WIRE 288 128 256 128
WIRE 400 128 400 112
WIRE 544 128 544 112
WIRE 912 128 912 112
WIRE 1008 128 1008 96
WIRE 1008 128 960 128
WIRE 1200 128 1200 112
WIRE 256 144 256 128
WIRE 128 160 80 160
WIRE 256 224 256 208
WIRE 288 224 288 208
WIRE 288 224 256 224
WIRE 960 224 960 128
WIRE 960 224 576 224
WIRE 288 240 288 224
WIRE 400 240 400 208
WIRE 576 240 576 224
WIRE 576 240 400 240
WIRE 912 240 912 192
WIRE 976 240 912 240
WIRE 1008 240 1008 192
WIRE 1008 240 976 240
WIRE 1120 240 1120 144
WIRE 1120 240 1008 240
WIRE 976 256 976 240
FLAG 128 160 VCC
FLAG 288 240 0
FLAG 976 256 0
FLAG 1200 0 VOUT
FLAG 1200 128 0
FLAG 544 128 Sinout
SYMBOL 555Timer 32 144 R0
SYMATTR InstName X1
SYMBOL ind2 272 112 R0
SYMATTR InstName L1
SYMATTR Value .75
SYMATTR Type ind
SYMBOL ind2 384 112 R0
SYMATTR InstName L2
SYMATTR Value .75
SYMATTR Type ind
SYMBOL schottky 896 32 R0
SYMATTR InstName D1
SYMATTR Value 1N5817
SYMATTR Description Diode
SYMATTR Type diode
SYMBOL res 1184 16 R0
SYMATTR InstName R1
SYMATTR Value 200
SYMBOL cap 1104 80 R0
SYMATTR InstName C3
SYMATTR Value 2.2µ
SYMBOL schottky 896 128 R0
SYMATTR InstName D2
SYMATTR Value 1N5817
SYMATTR Description Diode
SYMATTR Type diode
SYMBOL schottky 992 128 R0
SYMATTR InstName D3
SYMATTR Value 1N5817
SYMATTR Description Diode
SYMATTR Type diode
SYMBOL schottky 992 32 R0
SYMATTR InstName D4
SYMATTR Value 1N5817
SYMATTR Description Diode
SYMATTR Type diode
SYMBOL schottky 272 208 R180
WINDOW 0 24 64 Left 2
WINDOW 3 24 0 Left 2
SYMATTR InstName D5
SYMATTR Value 1N5817
SYMATTR Description Diode
SYMATTR Type diode
SYMBOL cap 144 144 R270
WINDOW 0 32 32 VTop 2
WINDOW 3 0 32 VBottom 2
SYMATTR InstName C1
SYMATTR Value 68p
TEXT 72 280 Left 2 !.tran 0 1000u 995u 1n
TEXT 72 312 Left 2 ;.ac dec 10 10k 1meg
TEXT 320 32 Left 2 !K1 L1 L2 1
