Version 4.1
SHEET 1 1336 680
WIRE 208 0 208 -48
WIRE 768 32 672 32
WIRE 944 32 848 32
WIRE 1152 64 1152 32
WIRE 1280 64 1280 16
WIRE 208 128 208 80
WIRE 240 128 208 128
WIRE 336 128 304 128
WIRE 432 128 336 128
WIRE 528 128 432 128
WIRE 576 128 528 128
WIRE 672 128 672 32
WIRE 672 128 656 128
WIRE 704 128 672 128
WIRE 864 128 832 128
WIRE 208 160 160 160
WIRE 336 160 336 128
WIRE 432 160 432 128
WIRE 528 160 528 128
WIRE 864 160 832 160
WIRE 1152 176 1152 144
WIRE 1280 176 1280 144
WIRE 704 192 672 192
WIRE 944 192 944 32
WIRE 944 192 832 192
WIRE 976 192 944 192
WIRE 672 240 672 192
WIRE 336 256 336 240
WIRE 432 256 432 240
WIRE 528 256 528 240
FLAG 336 256 0
FLAG 432 256 0
FLAG 528 256 0
FLAG 208 160 VCC
FLAG 976 192 Sine
FLAG 672 240 0
FLAG 1152 176 0
FLAG 1152 32 9V
FLAG 864 128 9V
FLAG 1280 16 0
FLAG 1280 176 -9V
FLAG 864 160 -9V
FLAG 208 -48 0
SYMBOL 555Timer 112 144 R0
SYMATTR InstName X1
SYMBOL cap 304 112 R90
WINDOW 0 0 32 VBottom 2
WINDOW 3 32 32 VTop 2
SYMATTR InstName C1
SYMATTR Value .1n
SYMBOL res 320 144 R0
SYMATTR InstName R1
SYMATTR Value 1k
SYMBOL res 672 112 R90
WINDOW 0 0 56 VBottom 2
WINDOW 3 32 56 VTop 2
SYMATTR InstName R4
SYMATTR Value 1k
SYMBOL res 864 16 R90
WINDOW 0 0 56 VBottom 2
WINDOW 3 32 56 VTop 2
SYMATTR InstName R5
SYMATTR Value 68k
SYMBOL OPAx197 768 160 R0
SYMATTR InstName U1
SYMBOL voltage 1152 48 R0
WINDOW 123 0 0 Left 0
WINDOW 39 0 0 Left 0
SYMATTR InstName V1
SYMATTR Value 9
SYMBOL voltage 1280 48 R0
WINDOW 123 0 0 Left 0
WINDOW 39 0 0 Left 0
SYMATTR InstName V2
SYMATTR Value 9
SYMBOL voltage 208 96 R180
WINDOW 0 24 96 Left 2
WINDOW 3 24 16 Left 2
WINDOW 123 24 68 Left 2
WINDOW 39 0 0 Left 0
SYMATTR InstName V3
SYMATTR Value SINE(0 0 0)
SYMATTR Value2 AC 1
TEXT 72 280 Left 2 ;.tran 0 20u 10u 1n
TEXT 72 312 Left 2 !.ac dec 10 10k 1meg
